Circuit: * Z:\home\grzegorz\Studia\DiplomaThesis\STM32-PLC\Documentation\LTspiceSims\AnalogOutSim\analog_output.asc

WARNING: Less than two connections to node NC_01.  This node is used by V1.
Direct Newton iteration failed to find .op point.  (Use ".option noopiter" to skip.)
Starting Gmin stepping
Gmin = 10
Gmin = 1.07374
Gmin = 0.115292
Gmin = 0.0123794
Gmin = 0.00132923
Gmin = 0.000142725
Gmin = 1.5325e-005
Gmin = 1.6455e-006
Gmin = 1.76685e-007
Gmin = 1.89714e-008
Gmin = 2.03704e-009
Gmin = 2.18725e-010
Gmin = 2.34854e-011
Gmin = 2.52173e-012
Gmin = 2.70769e-013
Gmin = 0
Gmin stepping succeeded in finding the operating point.


Date: Sun Dec 28 21:46:23 2025
Total elapsed time: 0.160 seconds.

tnom = 27
temp = 27
method = modified trap
totiter = 6449
traniter = 6009
tranpoints = 1960
accept = 1566
rejected = 394
matrix size = 49
fillins = 36
solver = Normal
Matrix Compiler1: 6.91 KB object code size  1.5/0.7/[0.5]
Matrix Compiler2: 5.94 KB object code size  0.6/0.8/[0.6]

