Circuit: * Z:\home\grzegorz\Studia\DiplomaThesis\STM32-PLC\Documentation\LTspiceSims\AnalogOutSim\analog_output.asc

Direct Newton iteration failed to find .op point.  (Use ".option noopiter" to skip.)
Starting Gmin stepping
Gmin = 10
Gmin = 1.07374
Gmin = 0.115292
Gmin = 0.0123794
Gmin = 0.00132923
Gmin = 0.000142725
Gmin = 1.5325e-005
Gmin = 1.6455e-006
Gmin = 1.76685e-007
Gmin = 1.89714e-008
Gmin = 2.03704e-009
Gmin = 2.18725e-010
Gmin = 2.34854e-011
Gmin = 2.52173e-012
Gmin = 2.70769e-013
Gmin = 0
Gmin stepping succeeded in finding the operating point.


Date: Sat Dec 27 21:51:20 2025
Total elapsed time: 0.138 seconds.

tnom = 27
temp = 27
method = modified trap
totiter = 6558
traniter = 6118
tranpoints = 1983
accept = 1575
rejected = 408
matrix size = 47
fillins = 36
solver = Normal
Matrix Compiler1: 6.90 KB object code size  0.9/0.5/[0.3]
Matrix Compiler2: 5.86 KB object code size  0.9/0.6/[0.3]

