Circuit: * Z:\home\grzegorz\Studia\DiplomaThesis\STM32-PLC\Documentation\LTspiceSims\AnalogInSim\analog_input.asc

Direct Newton iteration failed to find .op point.  (Use ".option noopiter" to skip.)
Starting Gmin stepping
Gmin = 10
Gmin = 1.07374
Gmin = 0.115292
Gmin = 0.0123794
Gmin = 0.00132923
Gmin = 0.000142725
Gmin = 1.5325e-005
Gmin = 1.6455e-006
Gmin = 1.76685e-007
Gmin = 1.89714e-008
Gmin = 2.03704e-009
Gmin = 2.18725e-010
Gmin = 2.34854e-011
Gmin = 2.52173e-012
Gmin = 2.70769e-013
Gmin = 0
Gmin stepping succeeded in finding the operating point.


Date: Sun Dec 28 01:21:03 2025
Total elapsed time: 0.144 seconds.

tnom = 27
temp = 27
method = modified trap
totiter = 7595
traniter = 7113
tranpoints = 2343
accept = 1747
rejected = 596
matrix size = 28
fillins = 21
solver = Normal
Matrix Compiler1: 3.60 KB object code size  0.6/0.4/[0.2]
Matrix Compiler2: off  [0.4]/0.6/0.5

