Circuit: * Z:\home\grzegorz\Studia\DiplomaThesis\STM32-PLC\Documentation\LTspiceSims\DigitalOutSim\digital_output.asc

.OP point found by inspection.

Date: Mon Dec 29 01:44:51 2025
Total elapsed time: 0.376 seconds.

tnom = 27
temp = 27
method = modified trap
totiter = 10633
traniter = 10633
tranpoints = 3136
accept = 2575
rejected = 561
matrix size = 19
fillins = 1
solver = Normal
Matrix Compiler1: 1.02 KB object code size  0.5/0.6/[0.3]
Matrix Compiler2: 1.43 KB object code size  0.4/0.8/[0.3]

