Circuit: * Z:\home\grzegorz\Studia\DiplomaThesis\STM32-PLC\Documentation\LTspiceSims\DigitalOutSim\digital_output.asc

.OP point found by inspection.

Date: Sun Dec 28 05:14:22 2025
Total elapsed time: 0.153 seconds.

tnom = 27
temp = 27
method = modified trap
totiter = 10633
traniter = 10633
tranpoints = 3136
accept = 2575
rejected = 561
matrix size = 19
fillins = 1
solver = Normal
Matrix Compiler1: 1.02 KB object code size  0.3/0.2/[0.2]
Matrix Compiler2: 1.43 KB object code size  0.2/0.3/[0.2]

