Circuit: * Z:\home\grzegorz\Studia\DiplomaThesis\STM32-PLC\Documentation\LTspiceSims\DigitalInSim\digital_input.asc

.OP point found by inspection.

Date: Mon Dec 29 02:09:38 2025
Total elapsed time: 0.306 seconds.

tnom = 27
temp = 27
method = modified trap
totiter = 10145
traniter = 10145
tranpoints = 3446
accept = 2873
rejected = 573
matrix size = 19
fillins = 9
solver = Normal
Matrix Compiler1: 1.32 KB object code size  0.9/0.4/[0.3]
Matrix Compiler2: 1.58 KB object code size  0.3/0.5/[0.3]

