Circuit: * Z:\home\grzegorz\Studia\DiplomaThesis\STM32-PLC\Documentation\LTspiceSims\DigitalInSim\digital_input.asc

.OP point found by inspection.

Date: Sun Dec 28 04:58:21 2025
Total elapsed time: 0.118 seconds.

tnom = 27
temp = 27
method = modified trap
totiter = 6649
traniter = 6649
tranpoints = 2734
accept = 2314
rejected = 420
matrix size = 18
fillins = 7
solver = Normal
Matrix Compiler1: 1.21 KB object code size  0.3/0.2/[0.1]
Matrix Compiler2: 1.47 KB object code size  0.1/0.2/[0.1]

